* LTspice Encrypted File
* 
* This encrypted file has been supplied by a 3rd
* party vendor that does not wish to publicize
* the technology used to implement this library.
* 
* Permission is granted to use this file for
* simulations but not to reverse engineer its
* contents.
* 
* Begin:
 06 30 15 E4 96 0B 76 E0 F5 07 84 83 98 E7 BF E6
 BC ED AC 45 48 AC 35 F3 2D BD 46 AA 1D D5 1B C9
 99 91 BF A1 59 C1 3D A4 BC B2 EA 2C 27 A8 13 F2
 26 0D C1 F0 1D A0 CA 88 3F D8 3B 42 B0 33 A9 14
 0F 16 69 D1 37 BF 4A FC 4F A0 82 37 33 3E 8F 69
 E9 7C 77 7C 7A 1E 0B 65 1D 4C A4 DE 42 AA 6D B3
 0D BF D3 D8 82 DE EA E1 A3 E8 F2 4F F7 50 E8 7C
 16 71 E0 19 EE 32 19 33 74 5C 72 6F 3F 06 65 B2
 35 F7 01 C5 FB E1 A2 7A A0 65 13 48 B8 DF 62 E5
 D2 BB 4A 93 FA 46 97 3A 6C 59 4F C8 49 82 4B 34
 75 3E 26 A3 16 40 ED 4A A8 4A A1 31 47 6C E9 B6
 ED 10 CB E5 2E E0 E2 F2 58 81 56 C8 FB F0 D5 C7
 D7 05 0C C4 EA 33 5C 2A 9C B9 9F 82 B0 2D A5 9D
 42 82 67 ED 6E F6 E1 2F FA 10 38 B6 50 D4 F4 B0
 3D F6 B5 3F 76 0D 46 73 AA C5 CC 65 EA 12 6D 13
 09 DF A0 1F BC A4 33 07 0D B2 9A 3B D3 FF 80 A0
 AD 52 84 12 33 E8 24 09 67 ED 6B DE 6F E9 E7 EA
 3E 72 59 79 82 3E 8B 79 CD D2 70 E1 A3 A5 CA 8E
 29 F6 F7 32 F5 8F 13 61 3B 3F 5C 67 46 7D 36 CB
 21 97 C7 E4 E9 DF 0A E2 27 4C F3 9F 84 73 01 9B
 8C 3E 15 0F 45 A1 3C AE E7 06 DD CE 7A F0 F0 A7
 23 4F 2E 68 65 DE 2C 68 F5 09 68 6F 0C BA 76 88
 2A 71 87 1D 3A 24 F1 4A 21 E6 F4 9B AB 37 09 36
 41 D2 14 A9 D8 1B 4F 17 0B B3 EC CE 2D EE E9 1A
 43 EE 21 AA C5 B1 D7 07 DD 48 92 69 0C B4 70 79
 E1 0A 54 DB 55 6C 68 18 B1 E5 CD D6 8A 99 B5 73
 DA 4C 71 7D F7 D5 48 42 FE 76 B3 5F 87 F4 BB 24
 32 BA 94 5C 5A 07 47 9A 34 B8 D6 87 24 CE AF A9
 1C D3 E5 0C 45 4E AA 78 53 55 D9 5D 19 A5 E7 6A
 31 8D 48 91 EA 5E 96 37 74 15 D5 65 24 EC 86 16
 9C 91 9B B5 30 3D 86 21 D6 A9 A8 37 3F 29 17 47
 D4 94 35 B9 C7 7B 13 44 23 DB F2 58 B8 48 01 17
 13 FE CD 8F 4A 9F 82 F9 44 75 6A B1 81 CC 69 40
 63 29 22 6C ED B7 0F 0E B2 29 71 6A 91 DB 4E C1
 E7 B7 6B 8D 61 3F AE 54 0C F6 B5 71 2D BC 46 DE
 F4 72 78 AC F0 09 BF 4E 78 D6 1F 43 B0 B3 CF C6
 0D 36 7C A4 F8 31 F7 29 4F C7 AC A5 30 5A 2D 67
 BB D3 EA EB E4 E7 E1 CE 38 0F 49 DE 46 11 0F 49
 9C 48 29 D1 D0 26 54 54 EE C4 F6 59 A2 18 66 B5
 89 65 D4 2F 58 FE 20 C8 F9 66 74 62 67 30 5C FF
 19 F0 01 36 6C 11 C6 C9 28 0D B8 56 CE 9D 5E 91
 2E 19 12 FB 90 25 B1 0E 7A B6 C9 3E B2 16 7B 0A
 B9 9A 18 57 17 E9 B2 94 18 E0 19 35 EC C8 FB 9D
 B8 3F CB 66 B7 72 57 07 36 B1 EF 21 D8 53 92 6D
 99 07 50 40 DF F9 9E 7E EB EE 92 47 67 2F 23 BE
 DB FB E4 C6 1B 74 2E 4D 8C 7D C1 60 7F 2E AD 13
 96 2E 92 B1 A8 D7 CE 46 81 E5 40 E2 16 92 D7 B2
 A1 9E C7 4C F0 35 28 C8 1A FE 74 66 3E 22 55 D4
 15 FD FC D4 EA 8A BF 62 A3 FB 22 21 79 F0 4C CB
 96 D0 08 FB 78 28 A9 A2 E6 3D 51 6D B6 EF 31 7E
 70 1B EE 3B A8 A1 4F 4F 34 79 A2 0A 6F E7 75 69
 38 C3 5D 7A 72 9A 10 53 FD 05 F6 38 29 20 BF 87
 D3 4D D6 BA 32 5A 23 38 D2 51 C7 B7 A6 4A F4 CF
 D2 A7 78 88 23 27 F0 68 9A 78 6E 2B 68 C0 F2 B6
 99 74 CD 24 88 40 F6 91 F4 3F 05 0D AA 97 14 1A
 05 AF 26 53 E5 9B 80 A9 69 9B B8 A1 19 14 A7 67
 3F C9 2D C8 97 E3 E1 2A A1 F0 85 D7 24 8C 1D AA
 8F CE 5F 36 E0 B5 9D 2A 3D 06 78 98 22 1E 8D CD
 74 76 1C 82 CD 83 18 EE 70 CA 7E DE 5F 25 22 D8
 2F F1 81 C5 C3 AB 5D F3 0A C5 8D 8E 66 F5 E0 1C
 EB 01 02 EF 77 2F 65 85 21 D8 3D D2 F6 7E 0D 0D
 3F 7F 4B 54 C0 1B 56 5C 4B 7D 26 DC E4 DB AD A8
 A9 20 E3 41 F3 19 66 8F A3 CC A3 4B EC 9A 5D 64
 12 36 42 EC 9E B5 87 B8 4D BC D2 81 79 0F 48 0F
 76 3A E4 80 81 DD 8D 88 14 88 9D 1E BB 6D B6 62
 DB 05 7D AB 30 10 5A 78 41 90 F7 55 31 CB 05 CF
 1C C6 A3 CB 80 0A E6 31 94 15 D4 57 27 04 90 29
 F1 BF AC 59 BE CA 05 22 6B B4 F2 62 6E F9 C8 5B
 6D A8 F2 76 6C 25 1A 3B 55 B5 F4 33 5E 21 FB BA
 42 1C 97 66 09 8D 23 F3 10 0D 76 A7 17 81 17 6C
 F0 64 BE 10 89 EB 99 EE B7 2F 08 2D 10 DC 60 D1
 C1 79 C9 42 F2 75 F9 1E C6 DD 23 C5 5F 28 53 D2
 1C 17 92 06 83 D1 40 36 84 9E ED 41 91 B3 97 72
 F5 EF B5 FD AB C1 0B E9 B2 32 3B 79 A2 DE B3 13
 B0 BC 7A 76 A6 B7 77 E2 BF 7E E8 B1 98 10 6F D8
 7D 1F AD 89 B4 9A 95 78 0B 2E 16 D8 19 E4 7F 6E
 09 51 93 CB 3B 79 2F 20 17 B3 8E F0 84 27 FA 4F
 54 F2 70 09 2E 53 51 66 9A D8 DD EA 77 F7 9D E9
 7D 70 1D 05 8E 79 C0 17 2E C5 50 97 C5 AA 73 F8
 8D 4A B4 D4 24 A7 63 A5 6F 51 5C 35 AA B5 41 BE
 8B CA 73 E7 F1 55 41 51 86 48 D9 61 AE 68 B6 46
 6D A2 20 D9 57 1E 8D 1C B6 AC C2 26 5A 0B 4C 82
 95 52 5E E7 EA 2B B8 2B 96 D1 7E E3 21 C6 76 22
 D9 9E 43 07 65 6B 2C B0 48 36 90 A3 FC A6 AB A3
 74 CC 72 26 5A E3 19 FE 6E 04 59 C1 AD A2 21 F4
 4F 85 50 7F 0D BB CF 8B 41 61 FA 6E 64 B3 10 05
 41 0D 61 6F 67 39 93 F1 1B DD 69 5B 17 B1 40 AF
 C9 D5 21 D9 C1 C2 5C 49 64 60 D3 B5 96 8C 00 EF
 79 27 9F C6 C6 59 18 47 4B 42 E8 1F 88 52 0F 8B
 F4 47 A0 10 78 DA 89 55 3D 1E F0 1B 62 1C 6E 94
 4D AD 9D 00 F5 FA 75 5B E3 4C E3 39 20 23 D7 E7
 9A 43 18 ED BE 7B B3 2F 72 CA 55 59 30 29 F7 2A
 F7 95 BA 80 A2 0A 77 13 26 5E 68 44 F7 FB B4 A2
 0B 68 28 AA 31 CD 86 C3 14 54 77 0E EE 67 82 A2
 6E 02 B6 28 0D 44 E2 3E 03 89 E2 08 A5 48 BC AB
 40 8F C8 F2 75 9C 47 08 53 36 A3 C9 30 11 15 4B
 34 94 88 31 AE E4 49 1B E6 4D 80 21 A2 6F 82 DD
 F6 80 31 4C 19 11 74 66 34 90 10 F8 09 DD ED B2
 6D BA 9A 53 F8 2F C1 94 17 F1 68 5F 1F 4D 16 CB
 4C E8 DB C8 EA C7 39 7A 3A 0E B9 A9 C7 34 07 CF
 1D 86 48 DD 99 E1 42 CD 17 80 BB D7 C0 2B AE 68
 20 E3 A7 DC 01 13 FA 7A 63 55 C0 03 36 67 07 DF
 30 A7 BE 3A 38 04 1C AE 82 A4 EF F4 8D 5D 60 DE
 AA 10 43 40 8A B4 44 B9 3E C7 96 EC 33 73 5A 94
 6F 61 AA D6 58 7E 3E 5C 18 03 7E 69 BB AE 9C 74
 66 EA 0E 7D 1A F9 20 98 B6 6C 0B EF 38 56 26 98
 59 DE F3 EE A7 A4 CC 9C 10 49 28 24 0A 1E 3F 8D
 EA F6 36 92 DA 62 63 F6 B6 F0 F0 42 51 E0 9A 26
 73 0F E0 AE 52 87 72 56 00 AA C7 2D 4D 5E F1 8D
 A1 5B 48 A0 3C FE 2E 6F 0D 0D C6 36 DE EA DA 7E
 EB F3 AE 18 72 27 1A B4 8A 61 FD 99 AC A2 9E FD
 32 CB 1C FB A7 19 34 D0 CE DD ED 6D 4D BE 8C 51
 DA 31 10 C7 D0 13 38 B6 F4 06 7E 6F E8 E5 C2 FE
 26 57 44 89 19 B0 2E 83 D6 C1 2A 72 6F 90 5E FF
 3B 8A 49 57 A8 20 1D 4C 4C 2B F8 42 0E 0E F0 78
 C6 B7 F8 50 78 02 BC AF E2 25 7A F5 EF 0B 5B E1
 B0 59 40 2F 94 A1 90 DD 96 FC 76 AF 9F 95 70 59
 49 22 5C 38 9C 5F FB D2 26 07 8F 9C 9C 7A 3E 38
 BD F2 34 B0 82 81 E8 EC 35 A1 2F BA 66 54 50 9A
 1D 24 EC D1 E6 81 D8 EF F4 B0 1A 20 00 95 84 14
 AC 6F 97 E7 B3 ED BB C5 6D BD E1 92 F0 37 54 6E
 AB 0F 1A 50 63 B4 DC D4 E9 1E 44 DF 6F 7E FD 87
 3F 2F CC 32 09 36 A8 43 06 C3 98 3D 73 FD 4E A8
 FB 9C 0B 86 82 BD 59 A2 8C 88 2D A0 4A F2 D1 81
 6D 00 4A 33 26 54 EE 83 67 2A 7B 00 73 BB D5 83
 E9 13 06 63 9F 30 42 9C A4 42 39 50 91 98 97 F4
 CC 93 25 86 F2 91 13 0E 78 4A 91 2A 5F 17 4B A4
 04 64 6C B5 0A 33 3E 3A DE AA 9A F7 E8 2D F3 8C
 22 41 D7 AB DB 5B AD C9 A1 AE 26 2D EB 6D 9F 29
 4F 5D CD DE DF C9 81 AF 39 89 3C A8 BE 14 FB BD
 50 FA D1 65 ED 9B 49 92 A3 53 A6 1B F5 86 E4 01
 E4 66 FC FA 7B C2 F4 74 B2 13 01 28 3D D5 37 0F
 90 16 98 51 0D 3C 77 1D A8 B1 B0 66 23 D2 78 F7
 BD 76 C6 14 22 16 F8 92 89 63 87 BF 40 4F BE AD
 B8 0F FE 99 88 A1 C0 29 57 03 5C 03 3F BF 51 DF
 E6 33 FE F5 41 D7 D0 4D E0 33 FE 6D C5 2B 9E 96
 42 5D A8 05 30 78 22 9B 5D 83 C0 10 9A 50 43 4F
 C2 74 40 15 7B 7A 52 AA 47 F3 FC 45 1E 08 76 21
 2D 64 9A 94 48 2E 23 0C 4B E8 F9 4E 23 8F D4 DB
 1B 31 8E 66 E7 39 39 1D 95 4B BF 72 29 EC 03 4D
 35 0E 9A 93 79 AB A5 F3 3B 26 EC 30 02 15 64 33
 9B 13 D9 E7 3E 68 17 43 B2 68 34 BB 09 B8 6E 96
 3B 23 57 F4 91 B2 3D 36 A9 67 F3 13 8E F8 A1 63
 70 08 A4 41 62 56 EB DD CA 00 98 FB 5B 33 45 F6
 3A 68 E6 D8 67 1E 8C 64 E2 25 E8 BF 85 7E 74 49
 C8 B6 AC 5D 11 5D 95 CD 64 83 FF 99 07 0E EF 88
 45 2D 18 5F 3D CC D7 2E 95 9C 30 A9 4A 64 7B DA
 48 72 4B F4 F7 CE 46 32 D3 BB E7 62 E7 30 21 5A
 43 CD 7A D9 85 7F 16 87 6A E6 E1 E4 5A 6C EC 8D
 63 36 58 09 15 0D 65 49 E6 0B 6D D2 A5 73 CA F6
 4C A8 3F 00 84 EF 1F CF 04 D3 09 AB 84 62 0D 9E
 1B 46 83 13 40 E4 D6 EB 75 9C FE F8 22 47 C6 A9
 47 81 F4 2B 36 ED F8 70 0D 97 74 D9 84 2B 55 05
 BA 77 9D D1 6C 83 7A 36 5D DE 4F 3E 6E 13 36 63
 55 43 D8 F5 46 D1 F6 93 A3 34 40 35 A1 A3 D8 80
 DB 63 71 EF 50 08 20 5A A2 AF B4 F0 81 AA ED B5
 5B ED F4 E8 0E E4 6D 08 83 69 C5 DD CE 3A 3E 5F
 85 78 98 DD D6 23 A0 95 CF B0 BF 2F 4A F6 C2 63
 59 96 18 CD AD 2F 1E 26 AB 5E 65 F5 27 B5 2F B5
 C1 D1 6A 09 D6 A6 EF F3 F0 D5 4F 2A 05 67 B3 17
 DB B9 D1 01 44 60 A6 C4 79 6C ED 4E AD 61 B0 F5
 40 4D 0C A9 1D E9 9C AD 98 49 4C 93 55 9D 57 2C
 2C CE 15 67 2D 9C 06 74 93 A5 B0 97 B6 8D 6A 1C
 04 0D 33 FF D5 55 81 87 BE 96 E0 4B 1A 29 BC 29
 C8 DE A3 4A A5 9A 8D BB 65 C9 2C 69 25 34 09 A3
 AD DB B8 92 A5 CC 56 C2 C1 A0 4A 4D E8 A8 33 84
 07 D0 F9 A1 55 6B 1C 02 DB 11 F2 AB 62 CA 36 8D
 08 A7 6D F8 53 09 67 11 32 E2 EB 14 71 CB 28 99
 30 C4 F4 D0 FC 0B E5 F8 EC AA DD C4 5B FE 32 FA
 9A 99 39 C1 A1 EA 6A DB 5C 11 B6 3F 87 83 49 20
 61 D0 87 00 15 37 6A DA C8 3C C9 B7 D1 A3 62 4E
 A3 20 0A 5D E3 D8 A1 2F 66 B6 2B 2D D5 80 67 37
 25 FC 32 60 9C 70 27 2B B5 17 F2 F3 61 0A 9A C3
 50 17 E2 A5 8D E3 37 3B DE 19 25 4F 62 B6 0B 4D
 91 16 4F 6C E2 EE 88 43 44 BA D4 4F 55 7F 4C D4
 49 59 37 0C D8 33 63 8A 3E AD E0 26 FA AB 06 74
 E0 F1 EB 93 49 11 39 E5 79 A2 58 BA 37 F0 74 BD
 C2 EE 61 9C 85 F1 18 18 66 76 F5 AF B1 CF 3D 38
 7A 56 F5 89 62 A6 F2 02 1F D3 CF 34 B0 A9 78 73
 2F 5B 8F 31 7D 2E 0E AC 46 91 C1 E6 29 D2 6B 73
 4A 84 4B 4E 91 7D 0F D6 EA AE 1A A9 3B 7B 9C B1
 C1 C0 4C BB 66 A1 92 19 F2 64 10 3E 88 D7 6E AB
 50 9E EE C2 23 56 A1 C6 B2 BC 84 98 7B 5F 7F C7
 37 E5 13 A0 0B 5D AB 65 54 CC 8C FC E4 AB EE 17
 7B 5B 2E 6C 5C B4 EF 02 AC BA 86 E8 7F 72 8D C0
 AE 8E 5D 0E 52 27 41 85 E9 56 FE 17 DE DE C2 22
 F3 23 4F 3E D0 2C C6 E3 A2 FD E5 36 FA CB B9 C7
 59 20 03 02 9C 49 2F 8A E9 35 A5 C3 D0 FD FD 1C
 81 D7 AE 10 CA 69 BA 24 15 32 04 CB 07 30 78 37
 70 C2 8C 4F BE 8C 6F 55 9D 21 FE BC 1B 8E 8B CF
 BD 6D 4E 63 AC 1A 7B 6B 25 63 7B CA 9A BF FB 0A
 1F AB 94 1D 0F D0 96 CF 5E 1F 58 B8 6B 51 33 A8
 2B A1 33 0E 56 9E B3 55 C8 03 85 43 82 8A 5E C1
 B6 8E BC 0B E1 CD 9B D9 60 A8 23 C2 B6 1A 3B D1
 F8 8B C2 60 84 4C 89 5E 7F 6E D8 27 B4 76 B5 C5
 80 D8 AA 5A 9F 12 1A 4E 13 CE 97 43 CE 91 5A 05
 A4 32 8A B0 76 92 58 C0 87 5C C1 E6 9B 3D 32 81
 F8 4E AE D3 AD E5 BE A0 26 4B 6C 6D DB A1 EA 33
 3E C3 E6 86 F6 D5 12 65 FD 3F 71 0C 21 26 6A F8
 10 EE 59 56 CF 57 37 87 7A 84 98 2B 42 E3 02 54
 15 A5 BB 1F 18 44 F0 28 21 42 B8 AC B1 FA D9 40
 A7 FC B6 2E 77 23 1C 3F 5D D1 87 27 F4 CD 3B E8
 4F 75 60 03 37 EA 73 D1 8C 61 4A 1F 37 96 4F 99
 07 33 86 C9 50 9C 31 C2 BA 37 76 C0 B6 CD 7D D4
 29 46 57 FC 40 08 EC 36 16 D4 FD 15 AD B1 86 58
 EF C8 6B F3 DF C8 37 DD 11 0A EB FB 2E DC BE 39
 F9 00 48 72 A9 5E 77 51 D4 BE 58 1E DC 43 31 4E
 2B 5A 72 85 53 6D 7E FA F8 92 A4 23 3C 15 9E 58
 8C B4 8B 5F 81 2F CC 21 45 1E 3E CE 0B 30 DF 05
 91 C1 7A 00 6C 1F 90 65 D7 DF 51 D6 1A 35 54 42
 A8 66 6B F2 E5 92 DA 99 CB C4 AE 3F 23 9B 49 15
 F9 1B 58 8F 32 3E 36 0D 82 68 96 AF 3F BB CE 3A
 7F 5C E2 8F 05 D8 04 AD 35 49 79 5B C4 B2 49 9E
 50 34 DD 8F 51 97 9B 4E 50 6F 7B F0 19 70 9A 6C
 FE 2D 07 75 66 04 5A AC 5B 3B 8C 17 64 22 64 66
 8A 3C 3B 70 F0 12 53 FE 19 5A 4D 83 3A 47 2C 5D
 7A B2 D8 08 16 87 64 7C FB 6C 1F 9A 86 67 89 04
 E2 5B 60 09 18 FB 78 BE F1 B6 E6 A5 A5 90 97 F5
 79 28 B3 1D 93 9E 2C B3 1B 0E 0D CD 57 F7 82 F7
 3D 01 0E 80 12 D4 F2 70 78 24 10 66 60 6A 6B C2
 A7 E1 0D 02 53 FF E0 53 59 FA C2 7F 5F 48 EE 61
 12 D6 B9 E2 57 A6 3C 0C 13 66 53 62 99 7B 15 95
 B6 FF 3B 7C E2 42 33 48 9D 84 EC 16 6C 19 4C 88
 83 80 33 C3 51 F7 3D DD 61 1B 03 D8 01 42 FB 54
 F5 79 A0 B2 BF 9C 03 12 FD 73 AD 92 BC 37 C0 08
 8A A8 1B 04 C9 62 F5 BE 2E 22 8A 25 26 27 4A 3D
 4E F3 85 CB 96 83 FF 92 26 42 92 01 9F D3 58 CC
 5F 8D DF DD 56 60 AA 22 CD FF 5D 03 77 17 7B C9
 66 23 89 65 30 DE 81 12 A5 B3 93 5B E3 35 D6 DC
 DC 06 E6 BE 52 3E EC FD 84 83 FC 7B 62 AB 02 30
 4F 0F 68 2A 8C 1E C6 B9 21 82 D5 7E E8 25 5A 33
 C1 76 3B 16 08 F7 24 61 F2 FA 14 09 7B CD 66 79
 05 DD B3 2E DA B7 F5 CE 99 8F 2D 94 50 93 D7 BC
 42 F9 28 61 F5 77 06 7E D4 FD D0 D4 35 86 78 32
 70 1C 8E 1C 1D 77 70 C0 42 73 27 04 02 B5 6A 28
 90 61 37 C1 7A 87 EA 38 D4 C4 79 56 BF DD A3 11
 FD 39 79 F4 87 EF 60 68 1A 32 2D 06 04 61 91 D1
 7B B3 E2 E4 EB A8 ED A0 6F BE E1 20 0F C6 52 C1
 59 50 16 BB F8 3C 81 B2 46 18 48 E9 DE CF E8 EB
 55 40 C6 B4 12 05 9E EC D4 AF 80 8A 6E 2B 4F 8D
 A1 7B 17 70 BE 46 50 E4 06 0E 3A 55 AE 68 7B DB
 C6 0A 5C 9C 90 A6 6B 88 42 5F 69 79 5F A6 31 15
 5B F8 A4 AF E1 13 F7 57 2A 63 17 D0 46 FC 2B 0C
 60 1B 7A 47 AB 28 6A 7A 5E A4 E1 91 25 0E BD DF
 E6 39 29 BF A3 95 D4 45 8D DE AF F6 2A 4A F6 D9
 BF CE 58 34 A4 C8 FD 65 AD E6 FE EC D9 70 BC 49
 B4 6C 1A D5 34 BC 90 93 3A 4A D1 19 00 93 AD 48
 54 24 E8 07 FB 30 3D 30 2B 70 1B 34 01 0C 53 FC
 65 1E CE C7 A4 9F E2 89 58 35 60 0B E2 23 6A 9A
 93 8A 0B CD E7 54 D5 44 13 27 4C 01 B8 7F F3 D4
 A2 09 2D 92 43 1A F3 8E 0E 1E B6 D6 6D 3F D9 E8
 C8 70 47 9D E3 04 94 94 B7 9A 29 5F F8 B8 AE 3E
 64 5E 05 A4 5A 32 AA 28 82 36 AE 25 E5 04 42 B7
 80 C7 5A 10 9B DE 90 B1 3B 89 4F 4C C8 BA 02 CB
 AA 8C D3 81 32 C5 BC 86 C8 93 0A 12 99 DF B4 D3
 70 D9 3E C2 5E 25 4D 4C 17 25 83 58 01 CB 13 08
 5D B1 CF 0F 71 36 0B 49 3A 2A C0 74 82 DA 59 6E
 D1 4E 07 51 68 37 B2 64 A4 0B BB 46 B2 5C 6F 4B
 D7 7C 7C F8 F2 82 BA 7F 14 9A 08 23 43 40 3F D5
 37 AA 9E FF 95 C6 06 70 97 F6 09 A4 21 C3 FE 32
 C0 19 3D D7 16 25 52 5F 02 33 8C F2 86 A6 EC D7
 77 80 D1 36 E6 9E AB AA 21 4E 00 8A 31 28 A3 5F
 2B C6 F4 DF AB 90 20 E1 CD 76 44 EE ED 9F 21 06
 81 C4 71 81 6E 5F 03 01 DD 92 9A 6F BB C5 A9 50
 1B 7A F4 EB 99 F6 80 C0 23 AB 8F 23 07 38 A3 2F
 7D 0F FC C0 A0 98 98 29 D0 05 04 BE 8E CA A6 ED
 FB 3C 0C 16 09 67 2B 0B 49 9E 6B FA 5B 54 75 8C
 06 A2 98 F2 97 87 12 2B 41 50 22 08 19 76 B3 5E
 31 14 7F 71 CA 66 73 E4 54 CC 66 69 AC 73 F4 B2
 2E 48 51 79 D6 6E F9 51 E8 DA 7F 9A 74 F0 1A 5D
 1E 72 0D A7 68 FC 22 E2 27 31 00 B2 2D 50 91 B9
 1E D6 F2 E8 BD F9 80 52 77 32 4C 98 5D 15 1A B4
 C0 27 B8 C5 62 F9 E2 DB C4 4A EC DF 4D D3 4E 85
 DE 8E 56 54 4D 36 82 B7 28 9A 62 B7 43 29 43 D9
 26 F3 EB B8 CD 42 23 5B 39 36 3A 32 6E E6 64 1F
 62 5A 1B D6 0D B6 B2 A9 92 60 0E E1 42 27 2B 19
 8E A8 FE 60 14 47 16 C8 34 42 94 29 4E B1 46 59
 A8 11 C5 A3 E7 16 BF 8A 8A E9 30 7B A3 3C 96 B2
 7B A1 59 69 22 B4 DA 1D 5D 91 C4 0D F6 83 2D C0
 9A EB 7C 24 EA 34 42 AE FF D0 26 38 AE D3 86 EC
 01 1A FD BC 6D F2 5F 13 66 1B 88 26 A0 61 77 DE
 65 27 4A AF 29 00 AE 85 A5 99 BF 12 5F 69 EB 52
 92 CC 7E 2B 5A 24 8A B5 E4 A7 E7 25 4E FA 09 25
 DF 98 AE A4 94 B5 04 35 CC A2 9D 15 3C 58 D2 33
 EA 74 E7 DD 91 94 C4 71 E8 21 DA C6 E9 3F 1B 57
 AC 7A CF B0 66 F9 0A D4 D7 02 6C D6 8B AF 18 B3
 5F 78 1F 92 EE 7E 02 1A 75 E8 51 0E 99 32 75 E8
 26 D6 51 A5 83 52 9D 49 9C 95 49 0B 8E F4 15 C8
 9B 8E B7 70 BE 38 29 73 F3 1B 25 4F 6F D2 6A 32
 50 F4 51 EE FA C2 11 E9 C5 06 18 7C 2D 0D 89 0F
 2A 78 DE 4E E6 E3 BE C6 A3 B3 59 C2 E7 84 CC 4B
 3E B9 13 71 F3 72 A7 43 EB EC E3 31 64 50 C5 F4
 BF 07 AE 42 2D 23 81 42 45 F7 39 82 4A 61 A6 A1
 FB BF 4D 3E 56 13 D3 62 21 76 46 46 80 8B 42 F4
 25 CB F2 94 C2 0C E2 14 E9 6C 9C D7 E3 B6 EF C1
 28 93 A6 EC 77 57 C8 FB EB 3A F9 9C 81 5E 42 55
 7E 54 DF 38 DC 3E 39 CB 78 65 E2 DA 3C 00 FB 32
 70 5B BC AA 51 69 12 A5 94 10 4C 0F 9D DE 26 29
 B1 96 2E 26 C7 E1 E0 EC 27 6F EF 64 06 71 F1 EE
 D6 DA 81 C5 E7 22 AF 5C E3 4D AE 6D 42 77 61 47
 14 74 4E 2F 87 E7 BD 73 A9 FD A5 5C D9 11 FC C7
 3B F5 ED D5 8F 75 DA B0 71 01 D3 69 23 6F 62 37
 B1 65 48 D2 9B A1 94 A1 84 A3 6C A9 11 53 58 FF
 9C 63 6F 6C BA 7A B1 E3 A1 C4 6E 1B FF 35 7B 90
 02 CA D3 9F 35 70 8E AF CC 8B 9E CA 95 46 2C C7
 9E 5B 12 7C EE A2 8C E9 03 B0 DD A8 A3 0E 4D E1
 5E 72 32 78 D2 D8 75 9F 9A 48 AF 49 46 4A 6E 13
 70 94 D6 B5 B6 56 19 B7 D9 EC C4 DE 6D B7 F9 24
 31 66 77 62 4D AE EC D0 E4 0D 7C 51 AA 5A 13 79
 04 45 FB 0A 92 DA 57 17 61 FF 0D 63 AD CE BB E1
 0F 0C 77 18 4F 53 5A 92 8E 36 DF 7D FA 08 99 47
 CB 3C 00 76 D6 37 4A 92 34 99 5D 65 21 9D A4 CE
 69 4B 5C E0 F8 BD 00 92 6D 6A D1 63 8F 5B 3A EA
 FC 84 75 A1 B2 8A CD FF 05 63 2D A5 A2 EB AD 30
 E8 E2 D3 70 A0 00 EC D7 DB C5 D2 ED F8 4F 78 AA
 1C B1 77 37 81 A9 9A D5 D7 CF 9C 6F 21 81 F7 DF
 CF 84 02 48 34 73 F3 9C C2 19 2A 73 33 83 C7 DB
 1A C3 C6 79 7D 1E 0B 59 21 86 1A 34 EC 42 5B 9C
 50 15 87 8E 51 C6 EA A5 AB 82 6A D9 C1 58 C5 45
 CA 57 71 50 23 00 A6 A3 66 44 9E 1B 95 76 3A A1
 65 86 69 BB BD 1D 3D 34 9C 0E 8C 3D 6F 0E 14 E3
 00 64 70 7B A4 13 D9 68 9F 65 F5 3F 5E 76 EA D8
 EC 2D BA 59 BF 96 44 69 E2 84 A4 42 92 12 FC 77
 6B 5A 99 3A 55 98 2E 47 E2 3A 70 0A DD 1E B0 38
 8A 3E 0D 58 46 17 5D 6C 63 AB 88 2A B1 DC 46 D2
 16 77 FB FB 29 8C 8D 86 BE 4B E3 1F D9 0C 5C 5D
 4B 03 F3 B5 8E D3 F5 B0 32 EF 9F DE 1B 53 E9 3D
 C2 62 1A BC D9 E3 E6 37 E8 A7 DE DB D0 CD 3E 26
 FB 98 86 C3 08 B1 BE 28 6A 2C BA DF 18 7C 9D D2
 B6 4B B7 AE A8 D8 BB 2A D1 51 8D 1A EC D0 C8 22
 41 D5 55 81 AE 53 FD DB 2E CE 24 BA 6E 19 1D 41
 55 F4 2E 2A 8F 6A B6 88 76 1E DE 6D 5E 35 C4 02
 F5 E4 B0 5D A7 7A E0 26 DE 12 89 43 A0 22 C7 94
 6C DA 25 D5 E0 E5 83 4E BE 41 B6 21 13 61 19 33
 1C EC E3 F1 D1 08 F2 C1 28 8E AE FC C4 73 62 A6
 3A 5A 63 B2 78 08 D8 59 C3 CD 70 67 86 6B 46 26
 4E B9 7C 50 0B 0F 27 FC 76 3F 99 D1 8B 9A 4B 1B
 7F 02 85 83 7A 99 5C F8 47 5E DD 4E DC 54 52 81
 C1 50 67 E9 98 10 4A 33 03 10 B1 CC 22 A0 DD 51
 12 F6 0B C3 6F 84 DB C8 33 0B CE 7A C2 42 78 2D
 06 88 A0 45 37 47 23 95 CF A2 BB 81 CF 0D FB 72
 8C 11 18 C2 DA 4B AA 44 63 C8 69 4F CD 98 86 61
 4E 24 60 1E 0A 4D F5 91 C7 5D 91 63 D2 7B 8A 36
 13 04 4D 07 0F AA C8 94 A5 5F 4C 42 A7 AA EE DE
 4D D2 DC 67 00 47 1C 9E 33 4B D2 9D FE 0E 34 9A
 5F E9 05 7A B7 C3 01 08 49 6E 8D 32 81 CF 72 29
 08 1F A6 70 D3 25 AD FF 7C 9A B2 FE DD 4F B2 2B
 CB 4A 17 CE E4 19 A6 2F B1 D4 4C CD E6 80 08 B1
 1C 34 71 4C F7 27 34 85 B8 7F DF 24 7A 93 E2 ED
 1C 71 9D 35 FB 77 04 26 3D 2A 88 EF 35 B0 5A 0B
 FD 3F B0 AD 66 CE D5 A1 2E C9 DB C3 40 5C 37 97
 BC 9F 2D EB 26 C3 9B 4F 90 B4 2D 27 76 BB 71 2B
 B4 CF 71 91 37 AC A1 91 D7 9F 89 BD C5 74 5B A9
 88 4E FB 9A 23 AA CE B7 AC D9 AB 95 47 B9 A5 80
 0F 80 CC 4A E4 CE DE 8C 7A BA E5 77 37 0B A1 F0
 01 51 9D 5C 1A C8 40 72 7A A0 12 3D 18 54 7E 2A
 FD 2E 78 2B 35 C6 80 98 02 0D 8E D3 8C 01 F0 3A
 38 3D DB 4F 2D FD 8A 9A 5F 74 14 45 2C 44 D6 72
 40 73 6C C4 D6 8D 9E 72 1C 60 9E 8E E1 8E 80 2E
 D7 D3 AA 1D C6 8A 31 65 E9 D8 C2 88 84 00 D9 61
 D8 D5 89 E5 93 6C E2 BC C4 D3 61 A8 30 EF AA C6
 6A 6A 0F 21 FE 4C 8D AD 60 A9 C5 DA 9A 4B 4A BE
 C3 E0 5F 99 10 DB 4A D5 16 81 AC 2E 85 3D 0E A2
 87 F8 E4 03 C3 0C 44 77 D7 66 47 60 A9 BE B0 83
 C6 2C A9 06 1A 56 11 F4 2A 71 70 07 3F 4A B9 A7
 46 47 F0 15 3F EE CC 05 39 62 85 0F 11 60 FA 77
 70 B5 51 EA BA 56 93 84 9C 8B BA 93 B1 2F 0E 08
 02 A0 DA 86 0D 58 7D 17 3C AE 77 29 4D 92 CA 73
 B3 47 C9 C7 90 C7 82 5F F6 42 EB 22 AC D5 E6 E3
 7F DD 14 BE 05 B0 B7 A4 12 A5 FD BB 0E 7F 50 94
 50 54 2E 83 9C 85 21 71 C1 21 2E C8 31 F4 0D DC
 70 A6 D5 0C 3C 76 A6 5C 3D 10 E3 04 3C 34 B5 0F
 65 90 A2 43 A8 D9 D9 AF B7 4A E3 7E 4C A0 F3 65
 69 A7 41 C3 42 13 36 C0 9B CC CF AC B6 81 CB E6
 4D 69 AC 5D C3 A8 FA B3 56 5A 74 6F 68 E9 81 EA
 BA 71 FC 30 1F E5 CF D8 DD 24 27 FC C7 5E 4C E4
 DE A8 DC 3B D2 CB F0 B9 86 B4 2E 90 08 7C B7 1F
 AE 39 40 29 26 63 6E 5C 71 A1 4D CE DC 17 6B EC
 5C 12 92 A3 5F 33 B4 95 F5 1F 4F C0 C0 16 86 89
 1E 26 BA D7 1E DD 29 E9 2A 8B 39 C9 71 BD AB 99
 CD 0B 29 B9 9F 24 5E 9E 08 61 DB F0 39 88 BC 9D
 8C 3D E0 48 28 00 DE B0 72 DC F8 8D 65 C3 AA 18
 1B 3F F6 2D A0 E3 39 B6 90 07 85 6E 9B 55 DB 08
 02 2B EE 3D C1 BA 88 67 76 2E 8A E8 39 17 69 8C
 4C AD A0 FD A5 EB 94 BE C1 C4 D2 76 8D 02 9D 1C
 D6 98 9B B7 43 E3 A1 60 BA FB C9 F4 6A 1A A0 6F
 AE 56 5F 2D EC 0D E8 53 C6 1D 9B 74 02 73 8F FF
 1B 9A A2 56 D9 CE 39 A4 A9 C0 0B 8E 3E 93 47 EA
 C0 27 1B AB 45 48 8F 65 4F 5D DD 88 EC 58 0E E8
 FF F8 74 B3 AF C6 CE F6 63 67 3F 4A 41 FE 68 B5
 AA FB 6F 51 73 2A F6 69 D2 89 CE 4E D5 71 96 65
 C8 61 69 97 1E 81 6D B8 20 95 2E 95 0E 48 9D 70
 0D 59 57 58 CF F2 D6 96 D5 E7 7C D2 36 C7 21 BD
 5E 3D 98 C5 12 76 C4 DB 7F DC 37 7D B7 5D 2D 4A
 55 8D 73 F6 A6 61 18 36 A0 C0 13 58 66 B7 BC D4
 B0 23 E5 C3 D6 17 1C 24 8B E9 2B B4 BD A6 F6 26
 45 77 24 F6 D5 31 5F 95 6F 3C E1 BC C3 D1 B8 AB
 E9 F1 C0 7A FB A3 8B 56 06 F5 F5 F1 27 4E EF D6
 63 44 03 28 C7 B7 5F 53 ED 42 76 F5 43 4B 2D EF
 20 FC 50 FB 67 80 05 54 1C 78 91 D8 88 67 33 16
 69 2E 26 AC DD 30 18 F4 31 BE 58 D4 71 5F 49 1C
 DA 03 10 95 F7 13 02 A1 61 EB 57 49 A8 A2 60 09
 D6 59 C8 2C BE 40 D8 C5 47 E6 A5 26 CF ED 41 3D
 19 A3 CC B7 2C F4 69 D8 33 DB C4 93 06 54 55 0A
 09 FE FE EF D5 01 04 21 E7 49 B6 AD CD 1B CA 11
 BE 7C E6 22 1B CF 12 D0 46 78 AD E0 9E EF 1A 2A
 ED 99 17 A6 E0 D5 30 6F B0 F3 22 7C 41 53 E3 FE
 67 50 8A B9 43 BF 3F FA 50 BA 11 C3 7F C7 F0 5F
 0C 2A 59 7C CC E8 3D CD E5 E2 C2 71 F6 96 31 4E
 CE 96 8F 8E 4E FF A0 CD E3 E6 C5 26 79 61 6D CA
 82 44 4A EF AC 9A D5 C5 20 46 CA CF 25 BC A2 F2
 67 87 97 F0 00 E1 D6 3C A1 7D A1 38 2B 9E 49 94
 7A F7 B3 35 8B C2 AD 6A F9 6A CC 50 2F 1C C4 B4
 B8 B7 23 D6 DF CB B0 93 D8 2C FC FA 91 29 34 D8
 A7 27 07 D7 66 B9 4C 9F 5C ED 3E 9B EC 4B 86 A8
 C8 0F BB 20 61 CD 1C 0E 7B 6C A5 D5 54 47 6E 67
 AD F1 DA 01 7C 4F B0 FB 8C EC A1 EB 41 C1 05 FA
 E0 0D 1A CD 86 F6 E5 70 EE 23 0F DA A1 86 3D 77
 CC 45 C5 F6 B9 8B 82 0B AA 09 4E A7 1C CA 23 12
 1E 38 F1 82 EE 61 33 D4 AF 3E DE DD B5 CD A2 70
 CD 6E BD 41 88 BF 6C FA 4C 02 EF 0B 91 EC 56 50
 61 9B 80 C3 C2 66 FC 79 A5 C4 E0 4E 34 3A AB CB
 08 5A 28 24 79 B0 7A 19 76 7E 3F B7 16 70 95 2D
 3C 57 02 F1 45 CD DD AF 8D 2A 52 F2 8D F9 4B 7C
 2C 70 D7 16 FD 60 5A 60 62 81 C6 F9 A4 EC 30 3B
 5F C2 19 93 AB 16 77 6F D8 F4 9A 49 F2 BC 45 4C
 99 F0 AB C3 21 EA 6A 5F 80 44 58 1A E3 9D 31 26
 E2 8D AA E5 00 14 F5 C6 1C 29 76 11 B8 1D 6F 2F
 EC DC 02 58 A7 25 46 63 0E 85 19 D5 23 38 D3 54
 5E 0F 0D 65 31 19 7F BC 94 3C 3D B5 A4 46 C4 C9
 63 C7 6A F0 E5 B2 22 CA 93 79 C5 DA 99 22 75 31
 99 3F CC 20 5B 1A 80 14 2D FE 9B 26 9A 2F EF 2A
 EB 8F 31 64 12 23 89 DA FE F0 45 4B 34 41 14 94
 8A 78 66 1E B2 AC D8 35 F6 6F B0 50 AE 1C 0E 35
 2E B5 E7 9B CC F8 60 E3 97 07 59 F2 4A CD C8 97
 BD 26 24 FB A4 6F FB 16 8F 3B 1F 27 4F DB 79 5A
 60 69 88 5B 33 72 57 93 EC AD D9 9E 57 C4 BC FE
 63 60 AA B0 82 BC 94 36 A3 54 30 6F CD 66 47 70
 8D 6B 6B 97 3B E5 2B 01 94 1C F7 89 33 1B DF 54
 56 59 58 5B 94 D5 D6 1D 2B 5F 17 B2 0D C3 11 45
 E9 29 76 E6 C3 03 29 04 11 6A A5 34 27 5C BD 04
 5A C5 8B 87 03 AB D4 4E 5F 0F 7D A2 52 BD 37 F6
 27 E0 B0 B6 CC 45 5D F5 B9 B8 97 70 A2 69 42 25
 E8 47 86 4D 22 CB FB 13 78 09 1C 30 F5 97 3E 90
 A5 70 B4 6F FB DB 74 B3 12 29 03 8E 34 5F EF E2
 4D 58 95 77 76 C4 16 EE 69 EA 73 EC C7 AC 76 CB
 22 0F F8 52 04 3A 38 93 FD A5 EB 1C 44 0C 03 EF
 55 18 2F FC 1F 35 5A 4F F3 09 0E 1A 63 5B 92 EA
 38 35 E6 A2 A1 65 5E 28 39 6C 89 25 C2 9F C9 06
 07 BD FF 97 03 04 47 70 59 47 09 7A 72 B2 09 B5
 9E 84 FB 95 04 6E 95 77 46 00 98 5C 6F D4 1C 39
 9C 5E C2 B3 BE DD 30 A5 F3 1C 17 1E 73 21 3C EA
 F9 6C C0 13 B2 75 F1 3F 20 C1 FB 83 12 B3 D9 B5
 60 F6 02 66 E0 28 0E 16 05 DF 12 B6 53 01 95 43
 E3 23 DF 19 34 00 B3 2D AE 6B 01 EB 1A 32 36 E6
 0D 1D 2D 05 02 E5 18 17 2F AC EB 5B A8 AE 3F CC
 E3 58 25 AB 94 DA CD 35 AE 05 16 19 BF 63 D0 42
 0D 3C 43 CA A7 F8 FB 21 1A 9B 79 A8 B8 CF FB D2
 24 CB C9 70 04 8E 16 9B D2 7B FD 4F 8C 89 C2 34
 4A 34 8E 17 B7 76 5A E4 D7 61 79 18 75 F6 E6 F1
 0B 1C 22 8F F5 B8 E5 5D 01 11 F2 CA AA 91 C5 1D
 E0 F3 6D 87 3F D0 D8 F7 44 E6 41 53 85 D1 7C 28
 32 39 16 AA 52 F8 C0 4F DB B0 07 89 FF CA 9F EA
 42 F6 93 53 7E 13 DD 5C 52 24 B1 6B 60 36 DC 0C
 A5 A3 F1 90 A3 98 2C C3 3F 7A C9 EB 30 F5 36 E4
 4F 28 D3 71 87 37 4F 0E 0A CE 04 F8 BF 3F F3 6B
 CC C4 96 57 9E 19 27 6C 19 0E 14 85 3B D1 69 8E
 3C 4E 20 68 FA 36 58 AE 29 B8 68 F8 8B D5 F2 FD
 57 90 30 7B 90 95 4C 2E 3A 89 49 0A 18 CA FE A0
 F4 88 1C 77 5D F2 35 54 DC 4E A1 37 B9 72 AA 65
 60 B7 2E D9 12 A1 D8 C0 30 82 F3 00 6D 81 25 56
 7D 08 11 FD 7F E5 8D 54 78 BC 6C 38 62 57 24 8B
 E5 A4 49 5C E1 58 CC D2 DA 4C 13 76 B4 F7 AC 06
 1C 98 CB 77 EB 93 B7 18 78 C1 08 FF 0A 7C EF 36
 82 10 07 DC ED 3F 37 52 A5 8A F5 6B 74 34 F7 E8
 44 13 E5 F6 31 5A E9 02 F7 24 77 8D B0 A9 D7 04
 BE 95 0A 8D F3 92 6E E9 8E A4 75 E1 04 9D 71 A6
 97 9D 81 D4 B4 59 E2 D1 F7 53 CF B8 4E 93 6B 91
 60 EB 9F 62 A4 BD 91 1C 48 AB D1 7C F1 09 CF 29
 16 80 F9 79 86 7C 4D 9D 82 1A D9 43 D1 AE A5 5D
 3F EB C5 C6 93 81 B6 DD 16 65 A3 AF E1 5F 64 99
 81 19 E9 16 68 BE E1 82 5C E1 31 30 FF A8 9C A5
 D5 48 0D AC C5 57 BF FC 74 26 54 71 2B 3E 2D 0B
 C6 5B 21 A8 AA BC 72 17 C8 CC C7 16 50 0A 48 3D
 B4 8B 9F CA 7D E8 D8 25 39 86 40 73 BB 1F F8 AB
 CD F2 A6 9E A5 26 28 BE 3A 9D E4 C3 91 0C 5F B0
 B7 00 2D 7E 02 0E 03 27 2F 58 87 45 3F 5E D2 26
 47 2C A3 53 C2 01 B7 C3 90 59 93 B3 F2 6F CF 9E
 69 3B E8 E1 BF F6 CB 59 9D F5 21 F0 96 98 D3 A8
 03 84 1C 4B F1 AE BF 99 5F F3 72 90 DD 42 13 57
 52 DA F0 99 D4 83 01 8F 93 6B 42 22 5C 10 CE E6
 DA 26 4D 09 5F 5B 1A 0F 91 76 1C D9 02 75 28 7E
 EC C7 1D 71 25 0C 69 52 05 47 C6 EF 5D 2F EA A7
 E2 39 14 66 FB B2 B9 B6 89 75 5D 7D F7 65 E6 E2
 D4 46 2E B3 70 4B 1B 27 08 BC 88 50 7B A7 A5 03
 4D CD D3 47 6E 18 00 0F 2F 96 1F DC 81 25 FD FD
 CB 7B C8 83 7D A2 EC B7 A7 00 E1 5C 1B E2 B6 5D
 17 23 0B ED BA F8 75 89 B7 5D EA 03 C2 C8 30 C5
 AA A8 11 37 2B D3 FE AF 47 9D A0 05 ED 5A 01 D3
 00 3D 7E F0 30 19 62 15 6E 87 DE E6 71 D3 E7 D5
 EE 1B 99 6D 0E 3A E6 33 7D F9 6A 9B 3A 5F C1 7C
 24 E2 68 C3 7E E5 13 E2 CB 53 EC 9E A2 DA 75 9D
 C1 FB A4 3D CB 4F 1D C3 17 8D F6 B4 9C CD F8 7D
 59 AB 08 65 05 AC 18 AE 26 A6 AA FE 0E D2 99 84
 66 EC 87 89 88 92 92 89 1A B7 F7 63 9B 09 B0 23
 66 A0 3D 26 9E 08 EC 18 16 EF C1 AA E8 F2 03 E2
 18 E3 1B AD EA 98 B2 D5 67 66 F7 C8 FC 20 04 98
 8C 1D F6 48 37 3D 9D DE 40 A3 9B 59 99 A1 CD B3
 8D 3A FC 30 4A AC 09 07 85 4F 09 B6 A2 23 5C 5D
 E1 BE C3 1B 4D 3D 63 D6 11 F0 4F 88 15 97 43 39
 EC FD 8E 96 DF 64 B4 8A 99 86 63 01 86 A5 A1 37
 21 76 EB 96 65 33 F5 76 36 37 03 FE F9 5E 8D F7
 0E 9A DB 90 96 69 E2 1C D4 9C 59 F7 34 E7 5E 54
 4B F8 FB 68 96 30 60 7F 75 A6 9A 91 2C 64 6D 51
 EB F2 16 4A 96 7C 2E C7 57 9C 58 4B E1 98 C9 CA
 E8 3E F5 61 E5 8E D3 4E 97 E2 73 24 BE B0 29 47
 75 C8 5F D5 6F 03 0D 18 E1 27 A8 8A EF 4C DD 97
 58 76 73 EB DE 65 B0 89 16 FA D1 F3 50 D5 8C 48
 95 71 66 4A B4 15 F7 41 32 8C 38 9B F3 A7 36 C5
 E3 73 83 2F 1D EF 69 EA 6B 85 90 D1 57 4C 68 10
 96 91 96 3B DF 09 DB 4F 03 CF 0E AA 0B 3F CA 99
 41 AD F7 96 2D 59 D3 7F C1 18 8B F7 C4 D8 8C 66
 CA 17 09 7C 78 FB 6A 71 2C 63 D4 26 40 30 A7 D5
 4E AA 0D F9 5B 05 14 4E 6F A8 C3 6A 98 E1 F5 6F
 6E F4 04 D6 F0 55 91 54 09 58 8C E8 04 D1 A7 DA
 57 71 DC EC 16 75 6E EE 0A 65 3E AA AC 2D 89 F2
 8F 73 81 53 D7 D1 C4 32 AB A9 9A 7C 08 F5 05 0C
 1C 02 0E 29 2E 64 4A 66 F8 43 F8 C8 2B D5 FE A1
 96 1C 58 BA 08 A4 6B 80 17 6C D6 42 A4 C0 0C B1
 19 11 54 54 C4 63 9B 96 D7 63 BF 1D 1C 65 C2 79
 37 A2 E2 2C E6 49 1E 0D 03 FB 1D 93 29 6E E9 72
 F4 DF 21 A5 F8 6D 98 32 8B 95 F3 46 76 09 BF 6D
 42 1B E1 03 5C 2C 3E BB D3 75 EB 80 2F FF 1B B5
 BB 74 5B B3 5E 5B BC 59 A3 88 BE 41 BA AE 58 74
 43 2C D9 9F 1E 7C 1D 9C DB 94 C6 15 AF 79 68 EC
 C5 05 13 5B 37 BC 6E EA 2A BE 02 48 45 9A 00 B0
 94 DB 16 14 21 DD 8B 40 8C 0B DD D3 57 0A DA 57
 80 7F AC C9 2D B0 88 09 CF 6A 70 56 8E 6C 51 50
 9B 3F B0 8E 61 3D B8 E8 33 AE 5C A0 DA 89 21 BC
 1C D8 16 86 6B 6C 31 81 46 C5 3B CE 1A 10 12 CA
* End 2833698878 2117067449