Circuit: * Z:\home\miceuz\Xaltura\LoRaNode\pdn\Draft1.asc


Date: Sat Sep 26 10:03:54 2020
Total elapsed time: 0.042 seconds.

tnom = 27
temp = 27
method = trap
totiter = 0
traniter = 0
tranpoints = 0
accept = 0
rejected = 0
matrix size = 5
fillins = 0
solver = Normal

