Circuit: * Z:\home\miceuz\Xaltura\LoRaNode\pdn\pdn.asc

Direct Newton iteration for .op point succeeded.

Date: Sun Sep 27 23:05:19 2020
Total elapsed time: 0.081 seconds.

tnom = 27
temp = 27
method = trap
totiter = 3
traniter = 0
tranpoints = 0
accept = 0
rejected = 0
matrix size = 143
fillins = 29
solver = Normal
Matrix Compiler1:     511 opcodes
Matrix Compiler2: 10.87 KB object code size
