Circuit: * Z:\home\miceuz\Xaltura\LoRaNode\pdn\pdn2.asc

WARNING: Node NC_02 is floating.
WARNING: Node NC_03 is floating.

WARNING: Less than two connections to node NC_01.  This node is used by L5.
WARNING: Less than two connections to node NC_02.  This node is used by C2.
WARNING: Less than two connections to node NC_03.  This node is used by C7.

Date: Sun Sep 27 23:41:59 2020
Total elapsed time: 0.056 seconds.

tnom = 27
temp = 27
method = trap
totiter = 0
traniter = 0
tranpoints = 0
accept = 0
rejected = 0
matrix size = 28
fillins = 0
solver = Normal

